&clm_inparm
 albice = 0.80,0.55
 co2_type = 'diagnostic'
 create_crop_landunit = .false.
 dtime = 900
 fatmlndfrc = '/home/export/online1/xwan/cesm/inputdata/share/domains/domain.lnd.ne120np4_tx01v2.120412.nc'
 finidat = '/home/export/online1/cesm01/wangl/inputdata/ccsm4_init/b.e13.B1850C5CN.ne120_g16.tuning.005ax/0102-01-01/b.e13.B1850C5CN.ne120_g16.tuning.005ax.clm2.r.0102-01-01-00000.IP_2_T12.nc'
 fpftcon = '/home/export/online1/xwan/cesm/inputdata/lnd/clm2/pftdata/pft-physiology.clm40.c130424.nc'
 fsnowaging = '/home/export/online1/xwan/cesm/inputdata/lnd/clm2/snicardata/snicar_drdt_bst_fit_60_c070416.nc'
 fsnowoptics = '/home/export/online1/xwan/cesm/inputdata/lnd/clm2/snicardata/snicar_optics_5bnd_c090915.nc'
 fsurdat = '/home/export/online1/xwan/cesm/inputdata/lnd/clm2/surfdata_map/surfdata_ne120np4_simyr1850_c130311.nc'
 maxpatch_glcmec = 0
 nsegspc = 20
 urban_hac = 'ON_WASTEHEAT'
 urban_traffic = .false.
/
&ndepdyn_nml
/
#!--------------------------------------------------------------------------------------------------------------------------
#! lnd_in:: Comment:
#! This namelist was created using the following command-line:
#!     /home/export/online1/cesm06/dxh/workspace/cesm1_3_beta17_sehires31_newscripts/models/lnd/clm/bld/CLM build-namelist -infile /home/export/online1/cesm06/dxh/workspace/cesm1_3_beta17_sehires31_newscripts/cases/test100_95ocn190515/Buildconf/clmconf/cesm_namelist -csmdata /home/export/online1/xwan/cesm/inputdata -inputdata /home/export/online1/cesm06/dxh/workspace/cesm1_3_beta17_sehires31_newscripts/cases/test100_95ocn190515/Buildconf/clm.input_data_list -ignore_ic_year -namelist &clm_inparm start_ymd = 00010101  / -use_case 1850_control -res ne120np4 -clm_start_type default -envxml_dir /home/export/online1/cesm06/dxh/workspace/cesm1_3_beta17_sehires31_newscripts/cases/test100_95ocn190515 -l_ncpl 96 -lnd_frac /home/export/online1/xwan/cesm/inputdata/share/domains/domain.lnd.ne120np4_tx01v2.120412.nc -glc_nec 0 -co2_ppmv 284.7 -co2_type diagnostic -config /home/export/online1/cesm06/dxh/workspace/cesm1_3_beta17_sehires31_newscripts/cases/test100_95ocn190515/Buildconf/clmconf/config_cache.xml
#! For help on options use: /home/export/online1/cesm06/dxh/workspace/cesm1_3_beta17_sehires31_newscripts/models/lnd/clm/bld/CLM build-namelist -help
#!--------------------------------------------------------------------------------------------------------------------------
