&clm_inparm

finidat = '/home/export/online1/cesm01/wangl/inputdata/ccsm4_init/b.e13.B1850C5CN.ne120_g16.tuning.005ax/0102-01-01/b.e13.B1850C5CN.ne120_g16.tuning.005ax.clm2.r.0102-01-01-00000.IP_2_T12.nc'
/
